.subckt and A B out vdd gnd

x2 A B g1 vdd gnd nand
x3 g1 out vdd gnd inv

.ends and